
**** 04/07/21 19:54:35 ******* PSpice 17.4.0 (Nov 2018) ******* ID# 0 ********

 ** Profile: "Startup-trans"  [ c:\users\kesha\workspaces\odin\test\rotator\regulator\buck-boost\tps55165q1_12v_buck-boost_pspice_mod


 ****     CIRCUIT DESCRIPTION


******************************************************************************




** Creating circuit file "trans.cir" 
** WARNING: THIS AUTOMATICALLY GENERATED FILE MAY BE OVERWRITTEN BY SUBSEQUENT SIMULATIONS

*Libraries: 
* Profile Libraries :
* Local Libraries :
.LIB "../../../tps55165-q1_trans.lib" 
* From [PSPICE NETLIST] section of C:\SPB_Data\cdssetup\OrCAD_PSpiceTIPSpice_Install\17.4.0\PSpice.ini file:
.lib "nom_pspti.lib" 
.lib "nom.lib" 

*Analysis directives: 
.TRAN  0 14m 0 50n 
.OPTIONS ADVCONV
.OPTIONS ABSTOL= 1.0n
.OPTIONS ITL2= 40
.OPTIONS ITL4= 60
.PROBE64 V(alias(*)) I(alias(*)) 
.INC "..\Startup.net" 



**** INCLUDING Startup.net ****
* source TPS55165-Q1_TRANS
C_C8         0 VBAT  10u  
X_U1         N167982642 N1679826418 0 0 VBAT 0 N16798810 N16798815 0 PG 0 0 0 0
+  VBAT VBAT VREG VOUT VOUT VREG VREG TPS55165-Q1_TRANS PARAMS: STEADY_STATE=1
X_C15         VOUT 0 CESR PARAMS: C=0.1u ESR=64m IC=5 X=1
C_C1         0 VBAT  0.47u  
R_RLOAD1         VOUT 0  {12/0.7} TC=0,0 
X_C2         VOUT 0 CESR PARAMS: C=10u ESR=2.229m IC=5 X=1
X_C16         VOUT 0 CESR PARAMS: C=10u ESR=2.229m IC=5 X=1
X_C17         VOUT 0 CESR PARAMS: C=10u ESR=2.229m IC=5 X=1
R_R2         PG VOUT  100k TC=0,0 
C_C11         0 VREG  4.7u  
V_VIN         VBAT 0 14
X_U2         N16798810 N167982642 CESR PARAMS: C=100n ESR=29.6m ESL=1N
X_U3         N16798815 N1679826418 CESR PARAMS: C=100n ESR=30m ESL=1N
X_U5         N16798815 N16798810 LDCR PARAMS: L=18m DCR=18m

**** RESUMING trans.cir ****
.END

WARNING(ORPSIM-15256): <X_U2.ESL> not a subcircuit param

WARNING(ORPSIM-15256): <X_U3.ESL> not a subcircuit param

ERROR(ORPSIM-15141): Less than 2 connections at node N167982642.

ERROR(ORPSIM-15141): Less than 2 connections at node N1679826418.

ERROR(ORPSIM-15142): Node X_U2.1 is floating

ERROR(ORPSIM-15142): Node N167982642 is floating

ERROR(ORPSIM-15142): Node X_U3.1 is floating

ERROR(ORPSIM-15142): Node N1679826418 is floating
